      7.16      254.21        0.00
  -1412.19      254.21        0.00        0.00        0.00
  -1411.19      248.72        0.00       -3.51       -0.13
  -1407.19      226.77        0.00       -4.74       -0.17
  -1402.19      218.53        0.00       -5.14       -0.19
  -1392.19      218.13        0.00       -5.70       -0.21
  -1362.19      217.99        0.00       -6.47       -0.28
  -1312.19      217.99        0.00       -7.11       -0.40
  -1212.19      217.99        0.00       -7.89       -0.66
  -1012.19      217.99        0.00       -9.77       -1.55
   -812.19      218.03        0.00      -12.23       -2.78
   -612.19      218.92        0.00      -13.90       -3.70
   -412.19      219.82        0.00      -15.56       -4.62
   -212.19      220.79        0.00      -16.47       -5.23
    -12.19      221.93        0.00      -15.30       -4.98
    187.81      223.09        0.00      -14.14       -4.73
    387.81      224.24        0.00      -12.98       -4.48
    587.81      225.41        0.00      -11.81       -4.23
    787.81      226.53        0.00      -10.73       -3.88
    987.81      227.53        0.00       -9.86       -3.23
   1187.81      228.54        0.00       -9.00       -2.58
   1387.81      229.55        0.00       -8.14       -1.93
   1587.81      230.56        0.00       -7.28       -1.28
   1787.81      231.58        0.00       -6.42       -0.64
   1987.81      232.60        0.00       -5.56        0.01
   2187.81      233.63        0.00       -4.70        0.66
   2387.81      234.66        0.00       -3.84        1.31
   2587.81      235.70        0.00       -3.28        1.87
   2787.81      236.72        0.00       -3.65        2.17
   2987.81      237.75        0.00       -4.01        2.47
   3187.81      238.78        0.00       -4.37        2.76
   3387.81      239.82        0.00       -4.73        3.06
   3587.81      240.86        0.00       -5.09        3.36
   3787.81      241.90        0.00       -5.45        3.65
   3987.81      242.95        0.00       -5.81        3.95
   4187.81      244.01        0.00       -6.17        4.24
   4387.81      245.07        0.00       -6.53        4.54
   4587.81      246.13        0.00       -6.89        4.84
   4787.81      247.20        0.00       -7.25        5.13
   4987.81      248.27        0.00       -7.61        5.43
   5187.81      249.35        0.00       -7.97        5.72
   5387.81      250.36        0.00       -7.91        5.48
   5587.81      251.37        0.00       -7.78        5.17
   5787.81      252.37        0.00       -7.66        4.87
   5987.81      253.39        0.00       -7.54        4.56
   6187.81      254.40        0.00       -7.42        4.25
   6387.81      255.42        0.00       -7.30        3.94
   6587.81      256.45        0.00       -7.18        3.63
   6787.81      257.47        0.00       -7.06        3.32
   6987.81      258.51        0.00       -6.94        3.01
   7187.81      259.54        0.00       -6.81        2.70
   7387.81      260.58        0.00       -6.69        2.39
   7587.81      261.63        0.00       -6.57        2.08
   7787.81      262.67        0.00       -6.45        1.77
   7987.81      263.73        0.00       -6.33        1.46
   8187.81      264.78        0.00       -6.21        1.15
   8387.81      265.84        0.00       -6.09        0.85
   8587.81      266.91        0.00       -5.96        0.54
   8787.81      267.98        0.00       -5.84        0.23
   8987.81      269.04        0.00       -5.71       -0.07
   9187.81      269.94        0.00       -5.30       -0.23
   9387.81      270.84        0.00       -4.89       -0.38
   9587.81      271.75        0.00       -4.48       -0.53
   9787.81      272.65        0.00       -4.07       -0.68
   9987.81      273.56        0.00       -3.66       -0.83
  10187.81      274.47        0.00       -3.25       -0.99
  10387.81      275.39        0.00       -2.84       -1.14
  10587.81      276.30        0.00       -2.43       -1.29
  10787.81      277.22        0.00       -2.02       -1.44
  10987.81      278.14        0.00       -1.61       -1.59
  11187.81      279.07        0.00       -1.20       -1.75
  11387.81      280.00        0.00       -0.80       -1.90
  11587.81      280.93        0.00       -0.39       -2.05
  11787.81      281.86        0.00        0.02       -2.20
  11987.81      282.79        0.00        0.43       -2.35
  12187.81      283.73        0.00        0.84       -2.51
  12387.81      284.67        0.00        1.25       -2.66
  12587.81      285.61        0.00        1.66       -2.81
  12787.81      286.56        0.00        2.07       -2.96
  12987.81      287.51        0.00        2.48       -3.11
  13187.81      288.46        0.00        2.89       -3.27
  13387.81      289.41        0.00        3.30       -3.42
  13587.81      290.37        0.00        3.71       -3.57
  13787.81      291.33        0.00        4.12       -3.72
  13987.81      292.26        0.00        4.06       -3.68
  14187.81      293.18        0.00        3.81       -3.57
  14387.81      294.10        0.00        3.56       -3.45
  14587.81      295.03        0.00        3.32       -3.34
  14787.81      295.95        0.00        3.07       -3.23
  14987.81      296.88        0.00        2.82       -3.11
  15187.81      297.81        0.00        2.58       -3.00
  15387.81      298.74        0.00        2.33       -2.88
  15587.81      299.68        0.00        2.08       -2.77
  15787.81      300.62        0.00        1.84       -2.65
  15987.81      301.56        0.00        1.59       -2.54
  16187.81      302.50        0.00        1.34       -2.43
  16387.81      303.44        0.00        1.10       -2.31
  16587.81      304.39        0.00        0.85       -2.20
  16787.81      305.34        0.00        0.60       -2.08
  16987.81      306.29        0.00        0.36       -1.97
  17187.81      307.24        0.00        0.11       -1.86
  17387.81      308.19        0.00       -0.14       -1.74
  17587.81      309.15        0.00       -0.38       -1.63
  17787.81      310.11        0.00       -0.63       -1.51
  17987.81      311.07        0.00       -0.88       -1.40
  18187.81      312.04        0.00       -1.12       -1.29
  18387.81      313.00        0.00       -1.37       -1.17
  18587.81      313.97        0.00       -1.62       -1.06
