      4.04      249.50        0.00
   2445.79      249.50        0.00        0.00        0.00
   2446.79      244.66        0.00       -1.08        3.51
   2450.79      225.32        0.00       -1.46        4.74
   2455.79      222.01        0.00       -1.71        5.16
   2465.79      221.61        0.00       -2.22        5.91
   2495.79      221.58        0.00       -2.53        6.60
   2545.79      221.58        0.00       -2.87        7.34
   2645.79      221.59        0.00       -2.37        7.58
   2845.79      222.87        0.00       -1.08        8.01
   3045.79      224.89        0.00       -0.22        7.95
   3245.79      227.27        0.00        0.15        6.87
   3445.79      229.66        0.00        0.53        5.80
   3645.79      230.96        0.00        0.16        4.67
   3845.79      232.21        0.00       -0.25        3.54
   4045.79      233.47        0.00       -0.67        2.41
   4245.79      234.74        0.00       -1.08        1.27
   4445.79      235.87        0.00       -1.13        0.61
   4645.79      236.85        0.00       -0.80        0.44
   4845.79      237.84        0.00       -0.47        0.28
   5045.79      238.83        0.00       -0.15        0.11
   5245.79      239.83        0.00        0.18       -0.06
   5445.79      240.83        0.00        0.51       -0.22
   5645.79      241.83        0.00        0.84       -0.39
   5845.79      242.67        0.00        0.60       -0.27
   6045.79      243.46        0.00        0.19       -0.06
   6245.79      244.25        0.00       -0.22        0.14
   6445.79      245.04        0.00       -0.63        0.35
   6645.79      245.83        0.00       -1.04        0.55
   6845.79      246.63        0.00       -1.45        0.76
   7045.79      247.42        0.00       -1.86        0.96
   7245.79      248.22        0.00       -2.27        1.17
   7445.79      249.02        0.00       -2.68        1.37
   7645.79      249.87        0.00       -2.80        1.43
   7845.79      250.75        0.00       -2.79        1.41
   8045.79      251.63        0.00       -2.77        1.40
   8245.79      252.51        0.00       -2.76        1.39
   8445.79      253.39        0.00       -2.75        1.37
   8645.79      254.28        0.00       -2.73        1.36
   8845.79      255.16        0.00       -2.72        1.34
   9045.79      256.05        0.00       -2.71        1.33
   9245.79      256.95        0.00       -2.69        1.32
   9445.79      257.84        0.00       -2.68        1.30
   9645.79      258.74        0.00       -2.67        1.29
   9845.79      259.64        0.00       -2.65        1.27
  10045.79      260.54        0.00       -2.64        1.26
  10245.79      261.45        0.00       -2.62        1.25
  10445.79      262.35        0.00       -2.61        1.23
  10645.79      263.26        0.00       -2.60        1.22
  10845.79      264.20        0.00       -2.51        1.07
  11045.79      265.16        0.00       -2.35        0.80
  11245.79      266.12        0.00       -2.20        0.52
  11445.79      267.08        0.00       -2.04        0.25
  11645.79      268.05        0.00       -1.89       -0.03
  11845.79      269.02        0.00       -1.73       -0.30
  12045.79      269.99        0.00       -1.57       -0.58
  12245.79      270.97        0.00       -1.42       -0.85
  12445.79      271.94        0.00       -1.26       -1.13
  12645.79      272.93        0.00       -1.10       -1.40
  12845.79      273.91        0.00       -0.95       -1.68
  13045.79      274.90        0.00       -0.79       -1.95
  13245.79      275.89        0.00       -0.63       -2.23
  13445.79      276.88        0.00       -0.48       -2.50
  13645.79      277.87        0.00       -0.32       -2.78
  13845.79      278.87        0.00       -0.16       -3.05
  14045.79      279.87        0.00       -0.01       -3.33
  14245.79      280.88        0.00        0.15       -3.60
  14445.79      281.88        0.00        0.30       -3.88
  14645.79      282.89        0.00        0.46       -4.15
  14845.79      283.90        0.00        0.61       -4.43
  15045.79      284.86        0.00        0.43       -4.68
  15245.79      285.82        0.00        0.24       -4.93
  15445.79      286.78        0.00        0.06       -5.18
  15645.79      287.75        0.00       -0.12       -5.43
  15845.79      288.71        0.00       -0.30       -5.69
  16045.79      289.68        0.00       -0.48       -5.94
  16245.79      290.65        0.00       -0.67       -6.19
  16445.79      291.62        0.00       -0.85       -6.44
  16645.79      292.60        0.00       -1.03       -6.69
  16845.79      293.57        0.00       -1.21       -6.94
  17045.79      294.55        0.00       -1.40       -7.20
  17245.79      295.53        0.00       -1.58       -7.45
  17445.79      296.51        0.00       -1.76       -7.70
  17645.79      297.50        0.00       -1.94       -7.95
  17845.79      298.48        0.00       -2.13       -8.20
  18045.79      299.47        0.00       -2.31       -8.46
  18245.79      300.46        0.00       -2.49       -8.71
  18445.79      301.45        0.00       -2.67       -8.96
  18645.79      302.44        0.00       -2.86       -9.21
  18845.79      303.44        0.00       -3.04       -9.46
  19045.79      304.44        0.00       -3.22       -9.71
  19245.79      305.43        0.00       -3.40       -9.97
  19445.79      306.43        0.00       -3.59      -10.22
  19645.79      307.50        0.00       -3.86      -10.33
  19845.79      308.66        0.00       -4.25      -10.26
  20045.79      309.82        0.00       -4.64      -10.20
  20245.79      310.98        0.00       -5.03      -10.13
  20445.79      312.15        0.00       -5.43      -10.06
  20645.79      313.32        0.00       -5.82       -9.99
  20845.79      314.50        0.00       -6.21       -9.92
  21045.79      315.67        0.00       -6.60       -9.85
  21245.79      316.86        0.00       -6.99       -9.78
  21445.79      318.04        0.00       -7.39       -9.71
  21645.79      319.23        0.00       -7.78       -9.64
  21845.79      320.42        0.00       -8.17       -9.57
  22045.79      321.61        0.00       -8.56       -9.50
  22245.79      322.80        0.00       -8.96       -9.43
  22445.79      324.00        0.00       -9.35       -9.36
