      7.89      187.87        1.50
  -2652.65      187.87        1.50        0.99        1.38
  -2652.25      187.60        1.50        1.40        1.94
  -2651.75      187.49        1.50        1.57        2.18
  -2650.75      187.38        1.50        1.74        2.41
  -2647.75      187.23        1.50        1.96        2.72
  -2642.75      187.23        1.50        2.11        2.88
  -2632.75      187.23        1.50        2.40        3.21
  -2602.75      187.59        1.50        2.88        3.91
  -2552.75      188.68        1.50        3.79        4.77
  -2452.75      191.66        1.50        5.88        5.85
  -2252.75      194.66        1.50        5.56        4.01
  -2052.75      196.96        1.50        1.86        1.65
  -1852.75      199.23        1.50       -1.99       -0.69
  -1652.75      201.48        1.50       -3.53       -1.44
  -1452.75      203.75        1.50       -5.08       -2.19
  -1252.75      205.99        1.50       -6.55       -2.89
  -1052.75      207.43        1.50       -6.36       -2.57
   -852.75      208.87        1.50       -6.16       -2.25
   -652.75      210.32        1.50       -5.97       -1.92
   -452.75      211.78        1.50       -5.78       -1.60
   -252.75      213.07        1.50       -5.73       -1.36
    -52.75      214.22        1.50       -5.81       -1.20
    147.25      215.36        1.50       -5.90       -1.04
    347.25      216.52        1.50       -5.98       -0.88
    547.25      217.68        1.50       -6.06       -0.72
    747.25      218.84        1.50       -6.15       -0.57
    947.25      220.02        1.50       -6.23       -0.41
   1147.25      221.20        1.50       -6.32       -0.25
   1347.25      222.44        1.50       -6.04       -0.40
   1547.25      223.73        1.50       -5.55       -0.72
   1747.25      225.02        1.50       -5.07       -1.04
   1947.25      226.32        1.50       -4.58       -1.37
   2147.25      227.63        1.50       -4.10       -1.69
   2347.25      228.94        1.50       -3.61       -2.01
   2547.25      230.26        1.50       -3.13       -2.34
   2747.25      231.59        1.50       -2.64       -2.66
   2947.25      232.93        1.50       -2.16       -2.98
   3147.25      234.20        1.50       -1.55       -2.91
   3347.25      235.46        1.50       -0.92       -2.72
   3547.25      236.72        1.50       -0.28       -2.52
   3747.25      237.99        1.50        0.36       -2.32
   3947.25      239.27        1.50        1.00       -2.13
   4147.25      240.56        1.50        1.64       -1.93
   4347.25      241.85        1.50        2.28       -1.74
   4547.25      243.15        1.50        2.92       -1.54
   4747.25      244.45        1.50        3.56       -1.34
   4947.25      245.76        1.50        4.20       -1.15
   5147.25      247.03        1.50        4.64       -0.84
   5347.25      248.14        1.50        4.41       -0.14
   5547.25      249.26        1.50        4.19        0.56
   5747.25      250.38        1.50        3.96        1.26
   5947.25      251.51        1.50        3.73        1.96
   6147.25      252.64        1.50        3.51        2.66
   6347.25      253.78        1.50        3.28        3.36
   6547.25      254.92        1.50        3.05        4.06
   6747.25      256.07        1.50        2.83        4.76
   6947.25      257.22        1.50        2.60        5.46
   7147.25      258.38        1.50        2.38        6.16
   7347.25      259.54        1.50        2.15        6.86
   7547.25      260.71        1.50        1.92        7.56
   7747.25      261.86        1.50        1.76        8.00
   7947.25      262.97        1.50        1.68        8.06
   8147.25      264.09        1.50        1.61        8.13
   8347.25      265.21        1.50        1.54        8.19
   8547.25      266.34        1.50        1.46        8.25
   8747.25      267.47        1.50        1.39        8.31
   8947.25      268.61        1.50        1.31        8.37
   9147.25      269.75        1.50        1.24        8.44
   9347.25      270.90        1.50        1.16        8.50
   9547.25      272.06        1.50        1.09        8.56
   9747.25      273.21        1.50        1.01        8.62
   9947.25      274.37        1.50        0.94        8.68
  10147.25      275.54        1.50        0.87        8.75
  10347.25      276.71        1.50        0.79        8.81
  10547.25      277.89        1.50        0.72        8.87
  10747.25      279.07        1.50        0.62        8.86
  10947.25      280.25        1.50        0.48        8.69
  11147.25      281.43        1.50        0.35        8.53
  11347.25      282.62        1.50        0.21        8.37
  11547.25      283.81        1.50        0.08        8.21
  11747.25      285.01        1.50       -0.06        8.05
  11947.25      286.21        1.50       -0.20        7.89
  12147.25      287.42        1.50       -0.33        7.73
  12347.25      288.64        1.50       -0.47        7.57
  12547.25      289.85        1.50       -0.60        7.41
  12747.25      291.08        1.50       -0.74        7.25
  12947.25      292.31        1.50       -0.88        7.09
  13147.25      293.54        1.50       -1.01        6.93
  13347.25      294.78        1.50       -1.15        6.76
  13547.25      296.02        1.50       -1.29        6.60
  13747.25      297.27        1.50       -1.42        6.44
  13947.25      298.53        1.50       -1.56        6.28
  14147.25      299.78        1.50       -1.70        6.12
  14347.25      300.93        1.50       -1.91        5.89
  14547.25      302.08        1.50       -2.12        5.66
  14747.25      303.24        1.50       -2.32        5.43
  14947.25      304.40        1.50       -2.53        5.20
  15147.25      305.56        1.50       -2.74        4.97
  15347.25      306.73        1.50       -2.95        4.74
  15547.25      307.90        1.50       -3.16        4.51
  15747.25      309.08        1.50       -3.36        4.28
  15947.25      310.26        1.50       -3.57        4.05
  16147.25      311.45        1.50       -3.78        3.82
  16347.25      312.64        1.50       -3.99        3.59
  16547.25      313.83        1.50       -4.20        3.36
  16747.25      315.03        1.50       -4.41        3.13
  16947.25      316.23        1.50       -4.61        2.90
  17147.25      317.44        1.50       -4.82        2.67
  17347.25      318.66        1.50       -5.03        2.44
