      4.81      170.12        0.00
   2445.79      170.14        0.00        0.00        0.00
   2446.79      170.65        0.00       -0.36        2.33
   2450.79      172.54        0.00       -0.51        3.15
   2455.79      173.32        0.00       -0.79        3.72
   2465.79      174.82        0.00       -1.33        4.77
   2495.79      179.68        0.00       -2.70        7.06
   2545.79      191.43        0.00       -4.63       10.25
   2645.79      198.97        0.00       -1.74        8.81
   2720.03      202.43        0.00       -0.37        8.14
   2794.27      204.48        0.00        0.35        7.84
   2868.51      206.54        0.00        1.07        7.55
   2942.76      208.42        0.00        1.70        7.21
   3017.00      209.35        0.00        1.91        6.62
   3091.24      210.28        0.00        2.12        6.04
   3165.48      211.21        0.00        2.32        5.45
   3239.73      212.15        0.00        2.53        4.86
   3313.97      213.09        0.00        2.73        4.28
   3388.21      214.03        0.00        2.94        3.69
   3462.46      214.64        0.00        2.93        3.14
   3536.70      215.07        0.00        2.78        2.60
   3610.94      215.50        0.00        2.64        2.06
   3685.18      215.92        0.00        2.50        1.52
   3759.43      216.35        0.00        2.36        0.98
   3833.67      216.78        0.00        2.22        0.44
   3907.91      217.21        0.00        2.08       -0.10
   3982.15      217.64        0.00        1.94       -0.65
   4056.40      218.07        0.00        1.80       -1.19
   4130.64      218.50        0.00        1.66       -1.73
   4204.88      218.94        0.00        1.52       -2.27
   4279.12      219.37        0.00        1.38       -2.81
   4353.37      219.67        0.00        1.32       -2.96
   4427.61      219.94        0.00        1.29       -3.00
   4501.85      220.20        0.00        1.26       -3.04
   4576.09      220.46        0.00        1.22       -3.07
   4650.34      220.72        0.00        1.19       -3.11
   4724.58      220.99        0.00        1.16       -3.15
   4798.82      221.25        0.00        1.13       -3.19
   4873.06      221.52        0.00        1.09       -3.22
   4947.31      221.78        0.00        1.06       -3.26
   5021.55      222.04        0.00        1.03       -3.30
   5095.79      222.31        0.00        0.99       -3.33
   5170.03      222.57        0.00        0.96       -3.37
   5244.27      222.84        0.00        0.93       -3.41
   5318.52      223.11        0.00        0.90       -3.45
   5392.76      223.37        0.00        0.86       -3.48
   5467.00      223.64        0.00        0.83       -3.52
   5541.24      223.90        0.00        0.80       -3.56
   5615.49      224.17        0.00        0.76       -3.60
   5689.73      224.39        0.00        0.61       -3.55
   5763.97      224.59        0.00        0.39       -3.46
   5838.21      224.78        0.00        0.17       -3.37
   5912.46      224.98        0.00       -0.05       -3.28
   5986.70      225.17        0.00       -0.27       -3.18
   6060.94      225.37        0.00       -0.50       -3.09
   6135.18      225.56        0.00       -0.72       -3.00
   6209.43      225.76        0.00       -0.94       -2.91
   6283.67      225.95        0.00       -1.16       -2.82
   6357.91      226.15        0.00       -1.38       -2.72
   6432.15      226.35        0.00       -1.60       -2.63
   6506.40      226.54        0.00       -1.82       -2.54
   6580.64      226.74        0.00       -2.05       -2.45
   6654.88      226.93        0.00       -2.27       -2.36
   6729.12      227.13        0.00       -2.49       -2.26
   6803.37      227.32        0.00       -2.71       -2.17
   6877.61      227.52        0.00       -2.93       -2.08
   6951.85      227.71        0.00       -3.15       -1.99
   7026.09      227.91        0.00       -3.38       -1.89
   7100.34      228.10        0.00       -3.60       -1.80
   7174.58      228.30        0.00       -3.82       -1.71
   7248.82      228.49        0.00       -4.04       -1.62
   7323.06      228.69        0.00       -4.26       -1.53
   7397.31      228.89        0.00       -4.48       -1.43
   7471.55      229.08        0.00       -4.71       -1.34
   7545.79      229.28        0.00       -4.93       -1.25
   7620.03      229.47        0.00       -5.15       -1.16
   7694.27      229.67        0.00       -5.37       -1.07
   7768.52      229.86        0.00       -5.59       -0.97
   7842.76      230.08        0.00       -5.73       -0.90
   7917.00      230.31        0.00       -5.76       -0.86
   7991.24      230.55        0.00       -5.78       -0.81
   8065.49      230.78        0.00       -5.81       -0.77
   8139.73      231.02        0.00       -5.83       -0.72
   8213.97      231.25        0.00       -5.86       -0.68
   8288.21      231.49        0.00       -5.89       -0.64
   8362.46      231.72        0.00       -5.91       -0.59
   8436.70      231.96        0.00       -5.94       -0.55
   8510.94      232.20        0.00       -5.96       -0.50
   8585.18      232.43        0.00       -5.99       -0.46
   8659.43      232.67        0.00       -6.01       -0.42
   8733.67      232.90        0.00       -6.04       -0.37
   8807.91      233.14        0.00       -6.06       -0.33
   8882.15      233.38        0.00       -6.09       -0.28
   8956.40      233.61        0.00       -6.12       -0.24
   9030.64      233.85        0.00       -6.14       -0.19
   9104.88      234.09        0.00       -6.17       -0.15
   9179.12      234.33        0.00       -6.19       -0.11
   9253.37      234.56        0.00       -6.22       -0.06
   9327.61      234.80        0.00       -6.24       -0.02
   9401.85      235.04        0.00       -6.27        0.03
   9476.09      235.28        0.00       -6.29        0.07
   9550.34      235.51        0.00       -6.32        0.11
   9624.58      235.75        0.00       -6.35        0.16
   9698.82      235.99        0.00       -6.37        0.20
   9773.06      236.23        0.00       -6.40        0.25
   9847.31      236.47        0.00       -6.42        0.29
   9921.55      236.70        0.00       -6.45        0.34
   9995.79      236.94        0.00       -6.47        0.38
  10070.03      237.18        0.00       -6.50        0.42
  10144.27      237.42        0.00       -6.52        0.47
  10218.52      237.66        0.00       -6.55        0.51
  10292.76      237.90        0.00       -6.58        0.56
  10367.00      238.14        0.00       -6.60        0.60
  10441.24      238.38        0.00       -6.63        0.64
  10515.49      238.62        0.00       -6.65        0.69
  10589.73      238.86        0.00       -6.68        0.73
  10663.97      239.10        0.00       -6.70        0.78
  10738.21      239.33        0.00       -6.73        0.82
  10812.46      239.57        0.00       -6.75        0.87
  10886.70      239.81        0.00       -6.78        0.91
  10960.94      240.05        0.00       -6.81        0.95
  11035.18      240.33        0.00       -6.79        0.90
  11109.43      240.63        0.00       -6.75        0.81
  11183.67      240.92        0.00       -6.72        0.72
  11257.91      241.21        0.00       -6.68        0.63
  11332.15      241.50        0.00       -6.65        0.54
  11406.40      241.79        0.00       -6.61        0.45
  11480.64      242.09        0.00       -6.58        0.36
  11554.88      242.38        0.00       -6.55        0.27
  11629.12      242.67        0.00       -6.51        0.18
  11703.37      242.97        0.00       -6.48        0.10
  11777.61      243.26        0.00       -6.44        0.01
  11851.85      243.56        0.00       -6.41       -0.08
  11926.09      243.85        0.00       -6.38       -0.17
  12000.34      244.14        0.00       -6.34       -0.26
  12074.58      244.44        0.00       -6.31       -0.35
  12148.82      244.73        0.00       -6.27       -0.44
  12223.06      245.03        0.00       -6.24       -0.53
  12297.31      245.33        0.00       -6.20       -0.61
  12371.55      245.62        0.00       -6.17       -0.70
  12445.79      245.92        0.00       -6.14       -0.79
