      7.07      217.79        0.00
  -3645.13      217.79        0.00        0.00        0.00
  -3644.13      213.22        0.00       -1.27        5.15
  -3640.13      194.96        0.00       -1.71        6.95
  -3635.13      191.81        0.00       -1.85        7.48
  -3625.13      191.54        0.00       -2.09        8.38
  -3595.13      191.52        0.00       -2.33        9.48
  -3545.13      191.52        0.00       -2.63       10.98
  -3445.13      193.58        0.00       -3.75       12.63
  -3245.13      198.12        0.00       -5.63       14.33
  -3045.13      202.16        0.00       -6.67       14.69
  -2845.13      205.69        0.00       -6.63       13.32
  -2645.13      209.25        0.00       -6.58       11.96
  -2445.13      211.48        0.00       -6.26       10.66
  -2245.13      213.28        0.00       -5.86        9.38
  -2045.13      215.09        0.00       -5.45        8.09
  -1845.13      216.92        0.00       -5.05        6.81
  -1645.13      218.76        0.00       -4.64        5.52
  -1445.13      219.67        0.00       -4.48        4.87
  -1245.13      220.57        0.00       -4.33        4.23
  -1045.13      221.47        0.00       -4.18        3.60
   -845.13      222.37        0.00       -4.03        2.96
   -645.13      223.27        0.00       -3.88        2.33
   -445.13      224.18        0.00       -3.73        1.69
   -245.13      225.09        0.00       -3.58        1.06
    -45.13      225.79        0.00       -3.45        0.90
    154.87      226.40        0.00       -3.32        0.94
    354.87      227.01        0.00       -3.19        0.97
    554.87      227.62        0.00       -3.06        1.01
    754.87      228.23        0.00       -2.93        1.04
    954.87      228.84        0.00       -2.81        1.07
   1154.87      229.45        0.00       -2.68        1.11
   1354.87      230.06        0.00       -2.55        1.14
   1554.87      230.67        0.00       -2.42        1.18
   1754.87      231.29        0.00       -2.29        1.21
   1954.87      231.90        0.00       -2.16        1.25
   2154.87      232.51        0.00       -2.04        1.28
   2354.87      233.21        0.00       -1.92        1.40
   2554.87      233.91        0.00       -1.80        1.53
   2754.87      234.62        0.00       -1.69        1.65
   2954.87      235.32        0.00       -1.57        1.77
   3154.87      236.03        0.00       -1.46        1.89
   3354.87      236.73        0.00       -1.34        2.02
   3554.87      237.44        0.00       -1.23        2.14
   3754.87      238.15        0.00       -1.11        2.26
   3954.87      238.86        0.00       -1.00        2.39
   4154.87      239.57        0.00       -0.88        2.51
   4354.87      240.29        0.00       -0.76        2.63
   4554.87      241.00        0.00       -0.65        2.75
   4754.87      241.72        0.00       -0.53        2.88
   4954.87      242.43        0.00       -0.42        3.00
   5154.87      243.15        0.00       -0.30        3.12
   5354.87      243.87        0.00       -0.19        3.25
   5554.87      244.59        0.00       -0.07        3.37
   5754.87      245.32        0.00       -0.00        3.43
   5954.87      246.06        0.00        0.01        3.42
   6154.87      246.80        0.00        0.02        3.41
   6354.87      247.55        0.00        0.03        3.40
   6554.87      248.29        0.00        0.04        3.38
   6754.87      249.03        0.00        0.05        3.37
   6954.87      249.78        0.00        0.06        3.36
   7154.87      250.53        0.00        0.07        3.35
   7354.87      251.28        0.00        0.08        3.34
   7554.87      252.03        0.00        0.09        3.33
   7754.87      252.78        0.00        0.09        3.32
   7954.87      253.53        0.00        0.10        3.30
   8154.87      254.28        0.00        0.11        3.29
   8354.87      255.04        0.00        0.12        3.28
   8554.87      255.79        0.00        0.13        3.27
   8754.87      256.55        0.00        0.14        3.26
   8954.87      257.31        0.00        0.15        3.25
   9154.87      258.07        0.00        0.16        3.24
   9354.87      258.83        0.00        0.17        3.22
   9554.87      259.59        0.00        0.18        3.21
   9754.87      260.35        0.00        0.19        3.20
   9954.87      261.12        0.00        0.20        3.19
  10154.87      261.89        0.00        0.21        3.13
  10354.87      262.70        0.00        0.22        2.96
  10554.87      263.52        0.00        0.22        2.78
  10754.87      264.33        0.00        0.23        2.60
  10954.87      265.15        0.00        0.23        2.43
  11154.87      265.96        0.00        0.24        2.25
  11354.87      266.78        0.00        0.24        2.07
  11554.87      267.60        0.00        0.25        1.89
  11754.87      268.42        0.00        0.25        1.72
  11954.87      269.24        0.00        0.26        1.54
  12154.87      270.06        0.00        0.26        1.36
  12354.87      270.89        0.00        0.27        1.19
  12554.87      271.71        0.00        0.27        1.01
  12754.87      272.54        0.00        0.28        0.83
  12954.87      273.37        0.00        0.28        0.66
  13154.87      274.20        0.00        0.28        0.48
  13354.87      275.03        0.00        0.29        0.30
  13554.87      275.86        0.00        0.29        0.12
  13754.87      276.69        0.00        0.30       -0.05
  13954.87      277.52        0.00        0.30       -0.23
  14154.87      278.36        0.00        0.31       -0.41
  14354.87      279.19        0.00        0.31       -0.58
  14554.87      280.03        0.00        0.32       -0.76
  14754.87      280.87        0.00        0.32       -0.94
  14954.87      281.71        0.00        0.33       -1.11
  15154.87      282.55        0.00        0.33       -1.29
  15354.87      283.48        0.00        0.32       -1.44
  15554.87      284.49        0.00        0.29       -1.57
  15754.87      285.50        0.00        0.27       -1.69
  15954.87      286.51        0.00        0.24       -1.82
  16154.87      287.53        0.00        0.21       -1.94
  16354.87      288.55        0.00        0.19       -2.07
