      6.38      272.84        0.00
  -1018.50      272.84        0.00        0.00        0.00
  -1017.50      264.93        0.00        5.12        1.21
  -1013.50      233.27        0.00        6.90        1.63
  -1008.50      221.99        0.00        7.48        1.77
   -998.50      221.15        0.00        8.32        1.97
   -968.50      220.86        0.00        9.44        2.24
   -918.50      220.83        0.00       10.27        2.44
   -818.50      220.77        0.00       11.18        2.66
    -65.74      220.35        0.00       13.74        3.12
    687.03      220.15        0.00       15.28        2.71
   1439.79      220.76        0.00       16.43        2.40
   2192.56      222.16        0.00       17.27        2.34
   2945.32      223.55        0.00       18.11        2.29
   3698.08      225.76        0.00       19.82        2.31
   4450.85      228.41        0.00       21.99        2.36
   5203.61      231.10        0.00       24.15        2.41
   5956.37      233.79        0.00       26.27        2.46
   6709.14      236.46        0.00       28.23        2.47
   7461.90      239.16        0.00       30.19        2.49
   8214.67      241.88        0.00       32.15        2.50
   8967.43      244.62        0.00       34.11        2.51
   9720.20      247.37        0.00       35.50        2.68
  10473.00      250.13        0.00       36.69        2.89
  11225.70      252.92        0.00       37.87        3.11
  11978.50      255.73        0.00       39.06        3.33
  12731.20      258.56        0.00       40.24        3.54
  13484.00      261.41        0.00       41.43        3.76
  14236.80      264.62        0.00       41.85        3.95
  14989.50      267.87        0.00       42.27        4.15
  15742.30      271.15        0.00       42.69        4.35
  16495.10      274.47        0.00       43.11        4.54
  17247.80      277.81        0.00       43.53        4.74
  18000.60      281.19        0.00       43.95        4.93
  18753.40      284.74        0.00       44.39        5.15
  19506.10      288.72        0.00       44.90        5.44
  20258.90      292.76        0.00       45.40        5.73
  21011.70      296.85        0.00       45.91        6.02
  21764.40      300.99        0.00       46.41        6.31
  22517.20      305.18        0.00       46.92        6.59
  23269.90      309.42        0.00       47.43        6.88
  24022.70      313.72        0.00       47.93        7.17
  24775.50      318.27        0.00       48.32        8.04
  25528.20      322.92        0.00       48.69        9.01
  26281.00      327.63        0.00       49.06        9.98
  27033.80      332.41        0.00       49.43       10.96
  27786.50      337.25        0.00       49.80       11.93
  28539.30      342.15        0.00       50.17       12.90
  29292.10      347.12        0.00       50.54       13.87
  30044.80      352.12        0.00       50.88       14.87
  30797.60      356.80        0.00       50.95       16.20
  31550.30      361.52        0.00       51.03       17.52
  32303.10      366.28        0.00       51.10       18.85
  33055.90      371.10        0.00       51.17       20.17
  33808.60      375.97        0.00       51.24       21.50
  34561.40      380.88        0.00       51.31       22.83
  35314.20      385.85        0.00       51.38       24.15
  36066.90      390.82        0.00       51.45       25.23
  36819.70      395.60        0.00       51.52       25.18
  37572.50      400.42        0.00       51.60       25.13
  38325.20      405.28        0.00       51.67       25.08
  39078.00      410.16        0.00       51.74       25.02
  39830.70      415.07        0.00       51.81       24.97
  40583.50      420.02        0.00       51.88       24.92
  41336.30      424.99        0.00       51.96       24.87
  42089.00      430.75        0.00       51.91       23.99
  42841.80      437.58        0.00       51.72       22.04
  43594.60      444.51        0.00       51.53       20.10
  44347.30      451.53        0.00       51.34       18.15
  45100.10      458.65        0.00       51.15       16.20
  45852.90      465.86        0.00       50.96       14.25
  46605.60      473.17        0.00       50.77       12.31
  47358.40      480.59        0.00       50.58       10.36
  48111.10      492.92        0.00       49.08        7.72
  48863.90      505.71        0.00       47.55        5.06
  49616.70      518.82        0.00       46.01        2.39
  50369.40      532.26        0.00       44.48       -0.27
  51122.20      546.04        0.00       42.94       -2.93
  51875.00      560.16        0.00       41.41       -5.59
  52627.70      574.64        0.00       39.87       -8.25
  53380.50      589.51        0.00       37.91      -11.20
  54133.30      604.80        0.00       35.52      -14.45
  54886.00      620.45        0.00       33.13      -17.69
  55638.80      636.51        0.00       30.74      -20.93
  56391.60      652.95        0.00       28.35      -24.18
  57144.30      669.81        0.00       25.96      -27.42
  57897.10      687.09        0.00       23.57      -30.66
  58649.80      704.79        0.00       21.18      -33.91
  59402.60      719.79        0.00       18.84      -34.10
  60155.40      733.98        0.00       16.52      -33.23
  60908.10      748.45        0.00       14.21      -32.35
  61660.90      763.21        0.00       11.89      -31.48
  62413.70      778.26        0.00        9.57      -30.60
  63166.40      793.60        0.00        7.25      -29.72
  63919.20      809.25        0.00        4.94      -28.85
  64672.00      825.21        0.00        2.62      -27.97
  65424.70      842.16        0.00        0.13      -21.15
  66177.50      859.64        0.00       -2.41      -12.92
  66930.20      877.47        0.00       -4.94       -4.68
  67683.00      895.68        0.00       -7.48        3.55
  68435.80      914.27        0.00      -10.01       11.78
  69188.50      933.23        0.00      -12.54       20.01
  69941.30      952.60        0.00      -15.08       28.25
  70694.10      972.36        0.00      -17.61       36.48
  71446.80      988.28        0.00      -18.44       41.99
  72199.60     1003.64        0.00      -18.95       46.99
  72952.40     1019.21        0.00      -19.46       52.00
  73705.10     1035.00        0.00      -19.97       57.00
  74457.90     1051.01        0.00      -20.48       62.01
  75210.60     1067.25        0.00      -20.99       67.01
  75963.40     1083.70        0.00      -21.50       72.01
  76716.20     1100.39        0.00      -22.01       77.02
  77468.90     1115.82        0.00      -22.88       78.49
  78221.70     1131.39        0.00      -23.76       79.92
  78974.50     1147.11        0.00      -24.64       81.34
  79727.20     1162.99        0.00      -25.53       82.77
  80480.00     1179.02        0.00      -26.41       84.20
  81232.80     1195.21        0.00      -27.29       85.62
  81985.50     1211.55        0.00      -28.17       87.05
  82738.30     1230.83        0.00      -28.68       87.64
  83491.00     1253.55        0.00      -28.76       87.31
  84243.80     1276.67        0.00      -28.85       86.97
  84996.60     1300.21        0.00      -28.93       86.64
  85749.30     1324.16        0.00      -29.02       86.30
  86502.10     1348.53        0.00      -29.10       85.96
  87254.90     1373.33        0.00      -29.19       85.63
  88007.60     1397.47        0.00      -28.44       84.15
  88760.40     1418.47        0.00      -25.09       79.08
  89513.20     1439.70        0.00      -21.74       74.01
  90265.90     1461.15        0.00      -18.38       68.94
  91018.70     1482.83        0.00      -15.03       63.87
  91771.40     1504.72        0.00      -11.68       58.80
  92524.20     1526.84        0.00       -8.32       53.73
  93277.00     1550.99        0.00       -6.28       49.22
  94029.70     1580.34        0.00       -7.74       46.18
  94782.50     1610.21        0.00       -9.20       43.13
  95535.30     1640.60        0.00      -10.66       40.09
  96288.00     1671.52        0.00      -12.11       37.05
  97040.80     1702.98        0.00      -13.57       34.01
  97793.60     1734.99        0.00      -15.03       30.97
  98546.30     1770.81        0.00      -17.53       30.51
  99299.50     1809.75        0.00      -20.77       31.89
 100051.50     1849.47        0.00      -24.00       33.26
 100804.50     1890.11        0.00      -27.24       34.64
 101557.50     1931.63        0.00      -30.48       36.02
 102310.50     1974.04        0.00      -33.72       37.40
 103062.50     2017.22        0.00      -36.94       38.81
 103815.50     2058.20        0.00      -39.74       41.27
 104568.50     2099.97        0.00      -42.53       43.73
 105321.50     2142.54        0.00      -45.33       46.19
 106073.50     2185.86        0.00      -48.12       48.65
 106826.50     2230.07        0.00      -50.91       51.11
 107579.50     2275.13        0.00      -53.71       53.57
 108332.50     2316.71        0.00      -56.35       55.75
 109085.50     2355.88        0.00      -58.87       57.74
 109837.50     2395.48        0.00      -61.40       59.73
 110590.50     2435.59        0.00      -63.92       61.71
 111343.50     2476.17        0.00      -66.45       63.70
 112096.50     2517.22        0.00      -68.98       65.69
 112848.50     2574.57        0.00      -71.23       67.46
 113601.50     2659.08        0.00      -73.04       68.91
 114354.50     2746.23        0.00      -74.85       70.36
 115107.50     2836.13        0.00      -76.66       71.80
 115859.50     2928.72        0.00      -78.47       73.25
 116612.50     3024.33        0.00      -80.29       74.69
 117365.50     3136.39        0.00      -82.01       75.93
 118118.50     3309.24        0.00      -83.39       76.31
 118870.50     3488.11        0.00      -84.77       76.69
 119623.50     3673.68        0.00      -86.16       77.06
 120376.50     3865.90        0.00      -87.54       77.44
 121129.50     4064.98        0.00      -88.92       77.82
 121882.50     4271.15        0.00      -90.30       78.19
 122634.50     4483.65        0.00      -91.63       78.49
 123387.50     4699.28        0.00      -92.69       78.31
 124140.50     4921.19        0.00      -93.75       78.13
 124893.50     5149.55        0.00      -94.82       77.95
 125645.50     5384.20        0.00      -95.88       77.77
 126398.50     5625.92        0.00      -96.94       77.59
 127151.50     5874.58        0.00      -98.00       77.41
 127904.50     6130.34        0.00      -99.07       77.23
 128656.50     6393.02        0.00     -100.13       77.05
 129409.50     6649.73        0.00     -101.13       76.83
 130162.50     6853.02        0.00     -101.87       76.43
 130915.50     7060.74        0.00     -102.62       76.03
 131667.50     7272.68        0.00     -103.36       75.63
 132420.50     7489.50        0.00     -104.11       75.23
 133173.50     7711.01        0.00     -104.85       74.82
 133926.50     7937.29        0.00     -105.60       74.42
 134678.50     8168.13        0.00     -106.34       74.02
 135431.50     8404.23        0.00     -107.09       73.62
 136184.50     8645.38        0.00     -107.84       73.22
 136937.50     8891.68        0.00     -108.58       72.82
 137690.50     9143.22        0.00     -109.33       72.42
 138442.50     9334.35        0.00     -109.77       72.01
 139195.50     9520.31        0.00     -110.17       71.61
 139948.50     9709.37        0.00     -110.57       71.21
 140701.50     9901.58        0.00     -110.97       70.81
 141453.50    10096.72        0.00     -111.37       70.40
 142206.50    10295.37        0.00     -111.77       70.00
 142959.50    10497.31        0.00     -112.17       69.60
 143712.50    10702.60        0.00     -112.57       69.19
 144464.50    10911.01        0.00     -112.97       68.79
 145217.50    11123.14        0.00     -113.38       68.39
 145970.50    11338.77        0.00     -113.78       67.99
 146723.50    11557.95        0.00     -114.18       67.58
 147475.50    11780.45        0.00     -114.58       67.18
 148228.50    11982.78        0.00     -114.88       66.82
 148981.50    12153.19        0.00     -115.02       66.51
