      8.19      218.28        0.00
  -4121.25      218.28        0.00        0.00        0.00
  -4120.25      215.90        0.00       -3.69       -1.01
  -4116.25      206.37        0.00       -4.98       -1.36
  -4111.25      203.46        0.00       -5.43       -1.49
  -4101.25      203.37        0.00       -6.16       -1.69
  -4071.25      203.38        0.00       -7.15       -1.87
  -4021.25      203.39        0.00       -7.94       -1.90
  -3921.25      203.46        0.00       -9.10       -1.72
  -3721.25      203.97        0.00      -11.19       -0.89
  -3521.25      204.73        0.00      -13.09        0.11
  -3321.25      205.74        0.00      -14.04        0.86
  -3121.25      206.75        0.00      -14.99        1.62
  -2921.25      207.68        0.00      -15.50        2.04
  -2721.25      208.52        0.00      -15.48        2.06
  -2521.25      209.36        0.00      -15.45        2.08
  -2321.25      210.20        0.00      -15.43        2.11
  -2121.25      211.05        0.00      -15.40        2.13
  -1921.25      211.70        0.00      -15.25        2.12
  -1721.25      212.22        0.00      -15.01        2.08
  -1521.25      212.73        0.00      -14.76        2.04
  -1321.25      213.25        0.00      -14.52        2.00
  -1121.25      213.77        0.00      -14.28        1.96
   -921.25      214.29        0.00      -14.04        1.92
   -721.25      214.81        0.00      -13.80        1.88
   -521.25      215.34        0.00      -13.58        1.85
   -321.25      215.92        0.00      -13.47        1.89
   -121.25      216.50        0.00      -13.36        1.94
     78.75      217.08        0.00      -13.25        1.98
    278.75      217.66        0.00      -13.14        2.02
    478.75      218.24        0.00      -13.03        2.06
    678.75      218.82        0.00      -12.92        2.11
    878.75      219.40        0.00      -12.81        2.15
   1078.75      219.98        0.00      -12.70        2.19
   1278.75      220.56        0.00      -12.60        2.24
   1478.75      221.15        0.00      -12.49        2.28
   1678.75      221.73        0.00      -12.38        2.32
   1878.75      222.32        0.00      -12.28        2.36
   2078.75      223.04        0.00      -12.32        2.36
   2278.75      223.75        0.00      -12.37        2.37
   2478.75      224.47        0.00      -12.41        2.38
   2678.75      225.18        0.00      -12.45        2.38
   2878.75      225.90        0.00      -12.49        2.39
   3078.75      226.62        0.00      -12.54        2.39
   3278.75      227.34        0.00      -12.58        2.40
   3478.75      228.07        0.00      -12.62        2.40
   3678.75      228.79        0.00      -12.66        2.41
   3878.75      229.52        0.00      -12.71        2.41
   4078.75      230.25        0.00      -12.75        2.42
   4278.75      230.98        0.00      -12.79        2.42
   4478.75      231.71        0.00      -12.83        2.43
   4678.75      232.44        0.00      -12.88        2.43
   4878.75      233.18        0.00      -12.92        2.44
   5078.75      233.91        0.00      -12.96        2.44
   5278.75      234.65        0.00      -13.00        2.45
   5478.75      235.45        0.00      -13.12        2.43
   5678.75      236.28        0.00      -13.26        2.40
   5878.75      237.11        0.00      -13.40        2.38
   6078.75      237.94        0.00      -13.54        2.35
   6278.75      238.77        0.00      -13.68        2.32
   6478.75      239.61        0.00      -13.81        2.30
   6678.75      240.45        0.00      -13.95        2.27
   6878.75      241.29        0.00      -14.09        2.24
   7078.75      242.13        0.00      -14.23        2.22
   7278.75      242.98        0.00      -14.37        2.19
   7478.75      243.82        0.00      -14.51        2.16
   7678.75      244.68        0.00      -14.65        2.14
   7878.75      245.53        0.00      -14.79        2.11
   8078.75      246.38        0.00      -14.93        2.08
   8278.75      247.24        0.00      -15.07        2.06
   8478.75      248.10        0.00      -15.21        2.03
   8678.75      248.96        0.00      -15.35        2.00
   8878.75      249.83        0.00      -15.49        1.98
   9078.75      250.69        0.00      -15.62        1.95
   9278.75      251.56        0.00      -15.76        1.92
   9478.75      252.43        0.00      -15.90        1.90
   9678.75      253.31        0.00      -16.04        1.87
   9878.75      254.20        0.00      -16.26        1.84
  10078.75      255.11        0.00      -16.53        1.81
  10278.75      256.02        0.00      -16.80        1.78
  10478.75      256.94        0.00      -17.07        1.75
  10678.75      257.86        0.00      -17.34        1.72
  10878.75      258.78        0.00      -17.61        1.68
  11078.75      259.70        0.00      -17.88        1.65
  11278.75      260.62        0.00      -18.15        1.62
  11478.75      261.55        0.00      -18.42        1.59
  11678.75      262.48        0.00      -18.69        1.56
  11878.75      263.41        0.00      -18.96        1.53
  12078.75      264.35        0.00      -19.23        1.50
  12278.75      265.29        0.00      -19.50        1.47
  12478.75      266.23        0.00      -19.77        1.43
  12678.75      267.17        0.00      -20.04        1.40
  12878.75      268.11        0.00      -20.31        1.37
  13078.75      269.06        0.00      -20.58        1.34
  13278.75      270.01        0.00      -20.85        1.31
  13478.75      270.97        0.00      -21.12        1.28
  13678.75      271.92        0.00      -21.39        1.25
  13878.75      272.88        0.00      -21.66        1.22
  14078.75      273.84        0.00      -21.93        1.18
  14278.75      274.81        0.00      -22.20        1.15
  14478.75      275.77        0.00      -22.47        1.12
  14678.75      276.74        0.00      -22.74        1.09
  14878.75      277.71        0.00      -23.01        1.06
  15078.75      278.69        0.00      -23.31        1.03
  15278.75      279.66        0.00      -23.66        0.99
  15478.75      280.64        0.00      -24.00        0.96
  15678.75      281.62        0.00      -24.35        0.93
  15878.75      282.60        0.00      -24.69        0.90
