      5.07      199.89        0.00
   1432.25      199.89        0.00        0.00        0.00
   1433.25      197.46        0.00        0.49        1.32
   1437.25      187.75        0.00        0.67        1.78
   1442.25      187.61        0.00        0.79        1.99
   1452.25      187.50        0.00        0.99        2.37
   1482.25      187.82        0.00        1.06        2.91
   1532.25      188.41        0.00        0.93        3.42
   1632.25      189.97        0.00        0.94        3.55
   1882.38      194.04        0.00        1.59        2.77
   2132.50      196.97        0.00        2.37        2.51
   2382.63      199.67        0.00        3.13        2.32
   2632.75      201.34        0.00        3.75        2.27
   2882.88      203.02        0.00        4.37        2.23
   3133.00      204.71        0.00        4.99        2.18
   3383.13      205.86        0.00        5.26        2.18
   3633.25      206.90        0.00        5.44        2.20
   3883.38      207.95        0.00        5.63        2.21
   4133.50      209.00        0.00        5.82        2.23
   4383.63      210.05        0.00        6.01        2.24
   4633.75      211.11        0.00        6.19        2.26
   4883.88      212.12        0.00        6.43        2.28
   5134.00      213.07        0.00        6.72        2.30
   5384.13      214.02        0.00        7.01        2.33
   5634.26      214.98        0.00        7.30        2.35
   5884.38      215.93        0.00        7.58        2.38
   6134.51      216.90        0.00        7.87        2.40
   6384.63      217.86        0.00        8.16        2.43
   6634.76      218.83        0.00        8.45        2.46
   6884.88      219.80        0.00        8.73        2.48
   7135.01      220.89        0.00        9.14        2.43
   7385.13      222.01        0.00        9.59        2.35
   7635.26      223.14        0.00       10.03        2.27
   7885.38      224.27        0.00       10.47        2.20
   8135.51      225.41        0.00       10.92        2.12
   8385.63      226.56        0.00       11.36        2.05
   8635.76      227.71        0.00       11.80        1.97
   8885.88      228.86        0.00       12.24        1.89
   9136.01      230.02        0.00       12.69        1.82
   9386.13      231.19        0.00       13.13        1.74
   9636.26      232.36        0.00       13.57        1.66
   9886.39      233.53        0.00       14.02        1.59
  10136.51      234.79        0.00       14.48        1.52
  10386.64      236.07        0.00       14.94        1.44
  10636.76      237.35        0.00       15.40        1.37
  10886.89      238.64        0.00       15.86        1.30
  11137.01      239.93        0.00       16.32        1.23
  11387.14      241.23        0.00       16.79        1.16
  11637.25      242.53        0.00       17.25        1.09
  11887.35      243.85        0.00       17.71        1.01
  12137.55      245.16        0.00       18.17        0.94
  12387.65      246.49        0.00       18.63        0.87
  12637.75      247.82        0.00       19.10        0.80
  12887.85      249.16        0.00       19.56        0.73
  13138.05      250.50        0.00       20.02        0.66
  13388.15      251.85        0.00       20.48        0.58
  13638.25      253.21        0.00       20.94        0.51
  13888.35      254.55        0.00       21.32        0.44
  14138.55      255.88        0.00       21.67        0.38
  14388.65      257.22        0.00       22.03        0.31
  14638.75      258.57        0.00       22.38        0.24
  14888.85      259.93        0.00       22.74        0.17
  15139.05      261.29        0.00       23.09        0.11
  15389.15      262.65        0.00       23.44        0.04
  15639.25      264.02        0.00       23.80       -0.03
  15889.35      265.40        0.00       24.15       -0.10
  16139.55      266.79        0.00       24.51       -0.17
  16389.65      268.18        0.00       24.86       -0.23
  16639.75      269.57        0.00       25.21       -0.30
  16889.85      270.97        0.00       25.57       -0.37
  17140.05      272.38        0.00       25.92       -0.44
  17390.15      273.79        0.00       26.28       -0.50
  17640.25      275.21        0.00       26.63       -0.57
  17890.35      276.64        0.00       26.99       -0.64
  18140.55      278.07        0.00       27.34       -0.71
  18390.65      279.53        0.00       27.73       -0.79
  18640.75      281.00        0.00       28.11       -0.88
  18890.85      282.48        0.00       28.49       -0.96
  19141.05      283.96        0.00       28.88       -1.04
  19391.15      285.44        0.00       29.26       -1.13
  19641.25      286.93        0.00       29.64       -1.21
  19891.35      288.43        0.00       30.03       -1.30
  20141.55      289.94        0.00       30.41       -1.38
  20391.65      291.45        0.00       30.80       -1.46
  20641.75      292.96        0.00       31.18       -1.55
  20891.85      294.48        0.00       31.56       -1.63
  21142.05      296.01        0.00       31.95       -1.71
  21392.15      297.55        0.00       32.33       -1.80
  21642.25      299.09        0.00       32.71       -1.88
  21892.45      300.63        0.00       33.10       -1.97
  22142.55      302.19        0.00       33.48       -2.05
  22392.65      303.75        0.00       33.87       -2.13
  22642.75      305.31        0.00       34.25       -2.22
  22892.95      306.89        0.00       34.63       -2.30
  23143.05      308.82        0.00       35.07       -2.43
  23393.15      310.76        0.00       35.50       -2.56
  23643.25      312.71        0.00       35.94       -2.69
  23893.45      314.67        0.00       36.37       -2.82
  24143.55      316.64        0.00       36.81       -2.95
  24393.65      318.63        0.00       37.24       -3.08
  24643.75      320.62        0.00       37.68       -3.22
  24893.95      322.63        0.00       38.11       -3.35
  25144.05      324.65        0.00       38.55       -3.48
  25394.15      326.68        0.00       38.98       -3.61
  25644.25      328.73        0.00       39.41       -3.74
  25894.45      330.78        0.00       39.85       -3.87
  26144.55      332.85        0.00       40.28       -4.00
  26394.65      334.93        0.00       40.72       -4.13
  26644.75      337.02        0.00       41.15       -4.26
  26894.95      339.12        0.00       41.59       -4.39
  27145.05      341.23        0.00       42.02       -4.52
  27395.15      343.36        0.00       42.46       -4.65
  27645.25      345.50        0.00       42.89       -4.78
  27895.45      347.94        0.00       43.33       -4.92
  28145.55      350.67        0.00       43.76       -5.07
  28395.65      353.43        0.00       44.19       -5.21
  28645.75      356.20        0.00       44.63       -5.36
  28895.95      359.00        0.00       45.06       -5.51
  29146.05      361.81        0.00       45.50       -5.65
  29396.15      364.65        0.00       45.93       -5.80
  29646.25      367.51        0.00       46.37       -5.95
  29896.45      370.40        0.00       46.80       -6.09
  30146.55      373.31        0.00       47.24       -6.24
  30396.65      376.24        0.00       47.67       -6.38
  30646.75      379.19        0.00       48.11       -6.53
  30896.95      382.17        0.00       48.54       -6.68
  31147.05      385.16        0.00       48.98       -6.82
  31397.15      388.19        0.00       49.41       -6.97
  31647.25      391.23        0.00       49.85       -7.12
  31897.45      394.30        0.00       50.28       -7.26
  32147.55      397.40        0.00       50.72       -7.41
  32397.65      400.52        0.00       51.15       -7.56
  32647.75      403.66        0.00       51.59       -7.70
  32897.95      407.32        0.00       52.07       -7.81
  33148.05      411.07        0.00       52.57       -7.91
  33398.15      414.86        0.00       53.06       -8.01
  33648.25      418.67        0.00       53.56       -8.11
  33898.45      422.53        0.00       54.05       -8.21
  34148.55      426.42        0.00       54.55       -8.32
  34398.65      430.34        0.00       55.04       -8.42
  34648.75      434.30        0.00       55.53       -8.52
  34898.95      438.30        0.00       56.03       -8.62
  35149.05      442.33        0.00       56.52       -8.72
  35399.15      446.39        0.00       57.02       -8.82
  35649.25      450.50        0.00       57.51       -8.93
  35899.45      454.64        0.00       58.01       -9.03
  36149.55      458.82        0.00       58.50       -9.13
  36399.65      463.04        0.00       59.00       -9.23
  36649.75      467.29        0.00       59.49       -9.33
  36899.95      471.59        0.00       59.98       -9.43
  37150.05      475.92        0.00       60.48       -9.54
  37400.15      480.29        0.00       60.97       -9.64
  37650.25      484.70        0.00       61.47       -9.74
  37900.45      489.27        0.00       62.03       -9.79
  38150.55      493.99        0.00       62.65       -9.81
  38400.65      498.76        0.00       63.27       -9.83
  38650.75      503.56        0.00       63.89       -9.84
  38900.95      508.41        0.00       64.51       -9.86
  39151.05      513.31        0.00       65.14       -9.88
  39401.15      518.25        0.00       65.76       -9.89
  39651.25      523.24        0.00       66.38       -9.91
  39901.45      528.27        0.00       67.00       -9.93
  40151.55      533.35        0.00       67.62       -9.94
  40401.65      538.48        0.00       68.24       -9.96
  40651.75      543.65        0.00       68.86       -9.98
  40901.95      548.87        0.00       69.48       -9.99
  41152.05      554.14        0.00       70.10      -10.01
  41402.15      559.46        0.00       70.72      -10.03
  41652.35      564.83        0.00       71.34      -10.04
  41902.45      570.25        0.00       71.97      -10.06
  42152.55      575.72        0.00       72.59      -10.08
  42402.65      581.23        0.00       73.21      -10.09
  42652.85      586.80        0.00       73.83      -10.11
  42902.95      592.42        0.00       74.45      -10.13
  43153.05      598.10        0.00       75.07      -10.14
  43403.15      603.73        0.00       75.65      -10.14
  43653.35      608.99        0.00       76.07      -10.03
  43903.45      614.29        0.00       76.48       -9.92
  44153.55      619.64        0.00       76.89       -9.81
  44403.65      625.03        0.00       77.31       -9.70
  44653.85      630.47        0.00       77.72       -9.58
  44903.95      635.95        0.00       78.14       -9.47
  45154.05      641.48        0.00       78.55       -9.36
  45404.15      647.06        0.00       78.96       -9.25
  45654.35      652.69        0.00       79.38       -9.14
  45904.45      658.36        0.00       79.79       -9.03
  46154.55      664.09        0.00       80.20       -8.92
  46404.65      669.86        0.00       80.62       -8.81
  46654.85      675.68        0.00       81.03       -8.70
  46904.95      681.55        0.00       81.45       -8.59
  47155.05      687.47        0.00       81.86       -8.48
  47405.15      693.44        0.00       82.27       -8.37
  47655.35      699.46        0.00       82.69       -8.25
  47905.45      705.53        0.00       83.10       -8.14
  48155.55      711.65        0.00       83.51       -8.03
  48405.65      717.83        0.00       83.93       -7.92
  48655.85      724.06        0.00       84.34       -7.81
  48905.95      730.34        0.00       84.75       -7.70
  49156.05      736.67        0.00       85.17       -7.59
  49406.15      743.06        0.00       85.58       -7.48
  49656.35      748.44        0.00       85.61       -7.31
  49906.45      753.78        0.00       85.62       -7.13
  50156.55      759.16        0.00       85.63       -6.96
  50406.65      764.58        0.00       85.64       -6.78
  50656.85      770.05        0.00       85.65       -6.61
  50906.95      775.55        0.00       85.66       -6.43
  51157.05      781.09        0.00       85.67       -6.26
  51407.15      786.66        0.00       85.68       -6.08
  51657.35      792.28        0.00       85.69       -5.91
  51907.45      797.94        0.00       85.70       -5.73
  52157.55      803.64        0.00       85.71       -5.56
  52407.65      809.38        0.00       85.72       -5.38
  52657.85      815.16        0.00       85.73       -5.21
  52907.95      820.98        0.00       85.74       -5.03
  53158.05      826.84        0.00       85.75       -4.86
  53408.15      832.75        0.00       85.76       -4.68
  53658.35      838.70        0.00       85.77       -4.51
  53908.45      844.69        0.00       85.78       -4.33
  54158.55      850.72        0.00       85.79       -4.16
  54408.65      856.80        0.00       85.80       -3.98
  54658.85      862.92        0.00       85.81       -3.81
  54908.95      869.08        0.00       85.82       -3.63
  55159.05      875.28        0.00       85.83       -3.46
  55409.15      881.53        0.00       85.84       -3.28
  55659.35      887.51        0.00       85.79       -3.21
  55909.45      892.76        0.00       85.58       -3.38
  56159.55      898.05        0.00       85.38       -3.54
  56409.65      903.36        0.00       85.18       -3.70
  56659.85      908.71        0.00       84.97       -3.87
  56909.95      914.08        0.00       84.77       -4.03
  57160.05      919.49        0.00       84.56       -4.20
  57410.15      924.92        0.00       84.36       -4.36
  57660.35      930.38        0.00       84.16       -4.53
  57910.45      935.88        0.00       83.95       -4.69
  58160.55      941.40        0.00       83.75       -4.86
  58410.65      946.96        0.00       83.55       -5.02
  58660.85      952.54        0.00       83.34       -5.19
  58910.95      958.16        0.00       83.14       -5.35
  59161.05      963.80        0.00       82.93       -5.52
  59411.15      969.48        0.00       82.73       -5.68
  59661.35      975.19        0.00       82.53       -5.84
  59911.45      980.93        0.00       82.32       -6.01
  60161.55      986.70        0.00       82.12       -6.17
  60411.65      992.50        0.00       81.92       -6.34
  60661.85      998.34        0.00       81.71       -6.50
  60911.95     1004.21        0.00       81.51       -6.67
  61162.05     1010.11        0.00       81.30       -6.83
  61412.15     1016.04        0.00       81.10       -7.00
  61662.35     1021.97        0.00       80.89       -7.14
  61912.45     1027.52        0.00       80.62       -7.01
  62162.55     1033.09        0.00       80.35       -6.88
  62412.75     1038.69        0.00       80.08       -6.74
  62662.85     1044.31        0.00       79.81       -6.61
  62912.95     1049.96        0.00       79.54       -6.48
  63163.05     1055.63        0.00       79.27       -6.35
  63413.25     1061.33        0.00       79.00       -6.21
  63663.35     1067.05        0.00       78.73       -6.08
  63913.45     1072.80        0.00       78.46       -5.95
  64163.55     1078.57        0.00       78.19       -5.82
  64413.75     1084.37        0.00       77.92       -5.69
  64663.85     1090.19        0.00       77.65       -5.55
  64913.95     1096.04        0.00       77.38       -5.42
  65164.05     1101.91        0.00       77.11       -5.29
  65414.25     1107.81        0.00       76.84       -5.16
  65664.35     1113.73        0.00       76.57       -5.03
  65914.45     1119.68        0.00       76.30       -4.89
  66164.55     1125.65        0.00       76.03       -4.76
  66414.75     1131.65        0.00       75.75       -4.63
  66664.85     1137.67        0.00       75.48       -4.50
  66914.95     1143.72        0.00       75.21       -4.36
  67165.05     1149.79        0.00       74.94       -4.23
  67415.25     1155.90        0.00       74.67       -4.10
  67665.35     1163.47        0.00       74.04       -3.93
  67915.45     1171.30        0.00       73.34       -3.75
  68165.55     1179.19        0.00       72.65       -3.57
  68415.75     1187.13        0.00       71.96       -3.39
  68665.85     1195.12        0.00       71.26       -3.21
  68915.95     1203.16        0.00       70.57       -3.03
  69166.05     1211.25        0.00       69.88       -2.85
  69416.25     1219.40        0.00       69.19       -2.67
  69666.35     1227.60        0.00       68.49       -2.49
  69916.45     1235.85        0.00       67.80       -2.31
  70166.55     1244.15        0.00       67.11       -2.14
  70416.75     1252.51        0.00       66.42       -1.96
  70666.85     1260.92        0.00       65.72       -1.78
  70916.95     1269.39        0.00       65.03       -1.60
  71167.05     1277.91        0.00       64.34       -1.42
  71417.25     1286.48        0.00       63.65       -1.24
  71667.35     1295.11        0.00       62.95       -1.06
  71917.45     1303.80        0.00       62.26       -0.88
  72167.55     1312.54        0.00       61.57       -0.70
  72417.75     1321.34        0.00       60.87       -0.52
  72667.85     1330.19        0.00       60.18       -0.34
  72917.95     1339.10        0.00       59.49       -0.16
  73168.05     1348.54        0.00       58.61       -0.62
  73418.25     1358.34        0.00       57.61       -1.48
  73668.35     1368.20        0.00       56.62       -2.33
  73918.45     1378.14        0.00       55.62       -3.19
  74168.55     1388.15        0.00       54.63       -4.05
  74418.75     1398.24        0.00       53.63       -4.90
  74668.85     1408.39        0.00       52.63       -5.76
  74918.95     1418.61        0.00       51.64       -6.61
  75169.05     1428.91        0.00       50.64       -7.47
  75419.25     1439.28        0.00       49.64       -8.33
  75669.35     1449.72        0.00       48.65       -9.18
  75919.45     1460.24        0.00       47.65      -10.04
  76169.55     1470.83        0.00       46.66      -10.89
  76419.75     1481.50        0.00       45.66      -11.75
  76669.85     1492.25        0.00       44.66      -12.61
  76919.95     1503.06        0.00       43.67      -13.46
  77170.05     1513.96        0.00       42.67      -14.32
  77420.25     1524.94        0.00       41.67      -15.17
  77670.35     1535.99        0.00       40.68      -16.03
  77920.45     1547.12        0.00       39.68      -16.89
  78170.55     1558.32        0.00       38.69      -17.74
  78420.75     1569.61        0.00       37.69      -18.60
  78670.85     1580.35        0.00       37.07      -19.81
  78920.95     1591.14        0.00       36.45      -21.04
  79171.05     1602.00        0.00       35.84      -22.26
  79421.25     1612.93        0.00       35.23      -23.49
  79671.35     1623.92        0.00       34.62      -24.71
  79921.45     1634.99        0.00       34.01      -25.94
  80171.55     1646.13        0.00       33.40      -27.16
  80421.75     1657.34        0.00       32.79      -28.39
  80671.85     1668.62        0.00       32.18      -29.62
  80921.95     1679.97        0.00       31.57      -30.84
  81172.05     1691.39        0.00       30.96      -32.07
  81422.25     1702.89        0.00       30.34      -33.29
  81672.35     1714.46        0.00       29.73      -34.52
  81922.45     1726.10        0.00       29.12      -35.74
  82172.65     1737.82        0.00       28.51      -36.97
  82422.75     1749.61        0.00       27.90      -38.19
  82672.85     1761.47        0.00       27.29      -39.42
  82922.95     1773.41        0.00       26.68      -40.64
  83173.15     1785.43        0.00       26.07      -41.87
  83423.25     1797.52        0.00       25.46      -43.10
  83673.35     1809.69        0.00       24.84      -44.32
  83923.45     1822.42        0.00       24.39      -45.55
  84173.65     1835.31        0.00       23.97      -46.78
  84423.75     1848.29        0.00       23.54      -48.01
  84673.85     1861.36        0.00       23.12      -49.24
  84923.95     1874.51        0.00       22.69      -50.46
  85174.15     1887.75        0.00       22.27      -51.69
  85424.25     1901.07        0.00       21.84      -52.92
  85674.35     1914.49        0.00       21.42      -54.15
  85924.45     1927.99        0.00       21.00      -55.38
  86174.65     1941.59        0.00       20.57      -56.61
  86424.75     1955.27        0.00       20.15      -57.84
  86674.85     1969.04        0.00       19.72      -59.06
  86924.95     1982.90        0.00       19.30      -60.29
  87175.15     1996.86        0.00       18.87      -61.52
  87425.25     2010.91        0.00       18.45      -62.75
  87675.35     2025.05        0.00       18.02      -63.98
  87925.45     2039.28        0.00       17.60      -65.21
  88175.65     2053.61        0.00       17.17      -66.44
  88425.75     2068.02        0.00       16.75      -67.66
  88675.85     2082.54        0.00       16.32      -68.89
  88925.95     2097.96        0.00       15.70      -69.93
  89176.15     2114.62        0.00       14.80      -70.70
  89426.25     2131.41        0.00       13.91      -71.47
  89676.35     2148.32        0.00       13.01      -72.24
  89926.45     2165.37        0.00       12.11      -73.01
  90176.65     2182.56        0.00       11.22      -73.79
  90426.75     2199.87        0.00       10.32      -74.56
  90676.85     2217.32        0.00        9.42      -75.33
  90926.95     2234.91        0.00        8.53      -76.10
  91177.15     2252.64        0.00        7.63      -76.87
  91427.25     2270.50        0.00        6.74      -77.64
  91677.35     2288.50        0.00        5.84      -78.41
  91927.45     2306.64        0.00        4.94      -79.18
  92177.65     2324.93        0.00        4.05      -79.96
  92427.75     2343.35        0.00        3.15      -80.73
  92677.85     2361.92        0.00        2.25      -81.50
  92927.95     2380.63        0.00        1.36      -82.27
  93178.15     2399.49        0.00        0.46      -83.04
  93428.25     2418.50        0.00       -0.43      -83.81
  93678.35     2437.65        0.00       -1.33      -84.58
  93928.45     2457.25        0.00       -2.45      -85.76
  94178.65     2477.57        0.00       -3.96      -87.64
  94428.75     2498.04        0.00       -5.46      -89.53
  94678.85     2518.68        0.00       -6.97      -91.41
  94928.95     2539.48        0.00       -8.48      -93.30
  95179.15     2560.47        0.00       -9.99      -95.19
  95429.25     2581.62        0.00      -11.50      -97.07
  95679.35     2602.94        0.00      -13.01      -98.96
  95929.45     2624.44        0.00      -14.52     -100.84
  96179.65     2646.12        0.00      -16.03     -102.73
  96429.75     2667.97        0.00      -17.54     -104.62
  96679.85     2689.99        0.00      -19.05     -106.50
  96929.95     2712.20        0.00      -20.55     -108.39
  97180.15     2734.60        0.00      -22.06     -110.27
  97430.25     2757.17        0.00      -23.57     -112.16
  97680.35     2779.93        0.00      -25.08     -114.04
  97930.45     2802.87        0.00      -26.59     -115.93
  98180.65     2826.00        0.00      -28.10     -117.82
  98430.75     2849.32        0.00      -29.61     -119.70
  98680.85     2872.83        0.00      -31.12     -121.59
  98930.95     2898.15        0.00      -32.26     -122.91
  99181.15     2925.00        0.00      -33.12     -123.78
  99431.25     2952.09        0.00      -33.97     -124.66
  99681.35     2979.43        0.00      -34.83     -125.53
  99931.45     3007.03        0.00      -35.68     -126.41
 100181.60     3034.88        0.00      -36.54     -127.28
 100431.80     3062.99        0.00      -37.39     -128.16
 100681.90     3091.36        0.00      -38.25     -129.03
 100932.00     3119.99        0.00      -39.10     -129.91
 101182.10     3148.89        0.00      -39.96     -130.78
 101432.30     3178.06        0.00      -40.81     -131.66
