      8.55      201.45        0.00
  -3645.13      201.45        0.00        0.00        0.00
  -3644.13      197.56        0.00       -1.00        4.41
  -3640.13      182.01        0.00       -1.35        5.95
  -3635.13      179.68        0.00       -1.46        6.40
  -3625.13      179.49        0.00       -1.66        7.16
  -3595.13      179.48        0.00       -1.83        8.13
  -3545.13      179.59        0.00       -2.21        9.61
  -3445.13      182.16        0.00       -3.14       11.02
  -3245.13      187.33        0.00       -4.12       12.27
  -3045.13      191.53        0.00       -4.38       12.26
  -2845.13      194.72        0.00       -4.08       10.81
  -2645.13      197.95        0.00       -3.77        9.36
  -2445.13      199.79        0.00       -3.59        8.24
  -2245.13      201.29        0.00       -3.43        7.20
  -2045.13      202.80        0.00       -3.28        6.16
  -1845.13      204.32        0.00       -3.12        5.12
  -1645.13      205.81        0.00       -2.98        4.11
  -1445.13      206.52        0.00       -3.06        3.78
  -1245.13      207.24        0.00       -3.14        3.44
  -1045.13      207.96        0.00       -3.23        3.10
   -845.13      208.68        0.00       -3.31        2.76
   -645.13      209.40        0.00       -3.39        2.43
   -445.13      210.13        0.00       -3.47        2.09
   -245.13      210.85        0.00       -3.56        1.75
    -45.13      211.58        0.00       -3.64        1.42
    154.87      212.24        0.00       -3.63        1.29
    354.87      212.85        0.00       -3.57        1.30
    554.87      213.46        0.00       -3.50        1.30
    754.87      214.08        0.00       -3.44        1.30
    954.87      214.69        0.00       -3.38        1.30
   1154.87      215.31        0.00       -3.32        1.31
   1354.87      215.93        0.00       -3.26        1.31
   1554.87      216.54        0.00       -3.19        1.31
   1754.87      217.16        0.00       -3.13        1.31
   1954.87      217.78        0.00       -3.07        1.32
   2154.87      218.40        0.00       -3.01        1.32
   2354.87      219.03        0.00       -2.94        1.32
   2554.87      219.66        0.00       -2.89        1.34
   2754.87      220.35        0.00       -2.86        1.43
   2954.87      221.03        0.00       -2.83        1.52
   3154.87      221.72        0.00       -2.79        1.62
   3354.87      222.41        0.00       -2.76        1.71
   3554.87      223.11        0.00       -2.73        1.80
   3754.87      223.80        0.00       -2.70        1.89
   3954.87      224.49        0.00       -2.67        1.98
   4154.87      225.19        0.00       -2.64        2.07
   4354.87      225.89        0.00       -2.61        2.16
   4554.87      226.59        0.00       -2.58        2.26
   4754.87      227.29        0.00       -2.55        2.35
   4954.87      227.99        0.00       -2.51        2.44
   5154.87      228.69        0.00       -2.48        2.53
   5354.87      229.40        0.00       -2.45        2.62
   5554.87      230.10        0.00       -2.42        2.71
   5754.87      230.81        0.00       -2.39        2.80
   5954.87      231.52        0.00       -2.36        2.90
   6154.87      232.23        0.00       -2.38        2.88
   6354.87      232.95        0.00       -2.40        2.86
   6554.87      233.67        0.00       -2.43        2.84
   6754.87      234.39        0.00       -2.45        2.82
   6954.87      235.11        0.00       -2.48        2.80
   7154.87      235.83        0.00       -2.50        2.78
   7354.87      236.56        0.00       -2.52        2.75
   7554.87      237.28        0.00       -2.55        2.73
   7754.87      238.01        0.00       -2.57        2.71
   7954.87      238.73        0.00       -2.59        2.69
   8154.87      239.46        0.00       -2.62        2.67
   8354.87      240.19        0.00       -2.64        2.65
   8554.87      240.92        0.00       -2.66        2.63
   8754.87      241.65        0.00       -2.69        2.61
   8954.87      242.39        0.00       -2.71        2.59
   9154.87      243.12        0.00       -2.74        2.57
   9354.87      243.86        0.00       -2.76        2.55
   9554.87      244.59        0.00       -2.78        2.53
   9754.87      245.33        0.00       -2.81        2.51
   9954.87      246.07        0.00       -2.83        2.48
  10154.87      246.81        0.00       -2.85        2.46
  10354.87      247.55        0.00       -2.88        2.43
  10554.87      248.33        0.00       -2.93        2.28
  10754.87      249.10        0.00       -2.98        2.13
  10954.87      249.88        0.00       -3.02        1.98
  11154.87      250.65        0.00       -3.07        1.82
  11354.87      251.43        0.00       -3.12        1.67
  11554.87      252.21        0.00       -3.17        1.52
  11754.87      252.99        0.00       -3.22        1.36
  11954.87      253.77        0.00       -3.26        1.21
  12154.87      254.56        0.00       -3.31        1.06
  12354.87      255.34        0.00       -3.36        0.91
  12554.87      256.12        0.00       -3.41        0.75
  12754.87      256.91        0.00       -3.45        0.60
  12954.87      257.70        0.00       -3.50        0.45
  13154.87      258.48        0.00       -3.55        0.30
  13354.87      259.27        0.00       -3.60        0.14
  13554.87      260.06        0.00       -3.65       -0.01
  13754.87      260.85        0.00       -3.69       -0.16
  13954.87      261.65        0.00       -3.74       -0.31
  14154.87      262.44        0.00       -3.79       -0.47
  14354.87      263.23        0.00       -3.84       -0.62
  14554.87      264.03        0.00       -3.89       -0.77
  14754.87      264.82        0.00       -3.93       -0.92
  14954.87      265.62        0.00       -3.98       -1.08
  15154.87      266.42        0.00       -4.03       -1.23
  15354.87      267.22        0.00       -4.08       -1.38
  15554.87      268.10        0.00       -4.23       -1.52
  15754.87      269.05        0.00       -4.45       -1.66
  15954.87      269.99        0.00       -4.68       -1.79
  16154.87      270.94        0.00       -4.90       -1.93
  16354.87      271.89        0.00       -5.12       -2.06
