      7.17     203.68       0.00
  -1468.35     198.70       0.00      -1.91       1.26
  -1463.35     198.29       0.00      -2.23       1.42
  -1453.35     199.28       0.00      -2.87       1.73
  -1423.35     200.52       0.00      -3.52       1.54
  -1373.35     202.08       0.00      -3.72       0.05
  -1273.35     205.08       0.00      -3.96      -2.09
  -1173.35     207.71       0.00      -4.44      -3.74
  -1073.35     209.33       0.00      -5.70      -4.86
   -973.35     210.96       0.00      -6.96      -5.99
   -873.35     212.30       0.00      -7.88      -6.84
   -773.35     213.23       0.00      -8.30      -7.28
   -673.35     214.16       0.00      -8.72      -7.73
   -573.35     215.09       0.00      -9.14      -8.17
   -473.35     216.03       0.00      -9.56      -8.62
   -373.35     216.97       0.00      -9.99      -9.06
   -273.35     217.53       0.00      -9.56      -8.89
   -173.35     218.09       0.00      -9.12      -8.72
    -73.35     218.65       0.00      -8.69      -8.54
     26.65     219.21       0.00      -8.26      -8.37
    126.65     219.77       0.00      -7.83      -8.20
    226.65     220.33       0.00      -7.40      -8.03
    326.65     220.90       0.00      -6.97      -7.86
    426.65     221.46       0.00      -6.54      -7.68
    526.65     222.03       0.00      -6.10      -7.51
    626.65     222.58       0.00      -5.74      -7.33
    726.65     223.00       0.00      -5.78      -7.12
    826.65     223.43       0.00      -5.81      -6.92
    926.65     223.86       0.00      -5.85      -6.71
   1026.65     224.29       0.00      -5.88      -6.50
   1126.65     224.72       0.00      -5.92      -6.29
   1226.65     225.15       0.00      -5.95      -6.08
   1326.65     225.58       0.00      -5.99      -5.87
   1426.65     226.01       0.00      -6.02      -5.66
   1526.65     226.44       0.00      -6.06      -5.46
   1626.65     226.88       0.00      -6.09      -5.25
   1726.65     227.31       0.00      -6.13      -5.04
   1826.65     227.75       0.00      -6.16      -4.83
   1926.65     228.18       0.00      -6.20      -4.62
   2026.65     228.62       0.00      -6.23      -4.41
   2126.65     229.06       0.00      -6.27      -4.20
   2226.65     229.49       0.00      -6.30      -4.00
   2326.65     229.91       0.00      -6.28      -3.64
   2426.65     230.31       0.00      -6.21      -3.11
   2526.65     230.71       0.00      -6.13      -2.59
   2626.65     231.11       0.00      -6.06      -2.07
   2726.65     231.50       0.00      -5.99      -1.54
   2826.65     231.90       0.00      -5.91      -1.02
   2926.65     232.30       0.00      -5.84      -0.49
   3026.65     232.70       0.00      -5.76       0.03
   3126.65     233.11       0.00      -5.69       0.55
   3226.65     233.51       0.00      -5.62       1.08
   3326.65     233.91       0.00      -5.54       1.60
   3426.65     234.31       0.00      -5.47       2.12
   3526.65     234.72       0.00      -5.39       2.65
   3626.65     235.12       0.00      -5.32       3.17
   3726.65     235.53       0.00      -5.25       3.69
   3826.65     235.93       0.00      -5.17       4.22
   3926.65     236.34       0.00      -5.10       4.74
   4026.65     236.75       0.00      -5.02       5.26
   4126.65     237.16       0.00      -4.95       5.79
   4226.65     237.57       0.00      -4.88       6.31
   4326.65     237.98       0.00      -4.80       6.83
   4426.65     238.39       0.00      -4.73       7.36
   4526.65     238.80       0.00      -4.65       7.88
   4626.65     239.21       0.00      -4.58       8.41
   4726.65     239.62       0.00      -4.51       8.93
   4826.65     240.03       0.00      -4.43       9.45
   4926.65     240.47       0.00      -4.45       9.60
   5026.65     240.92       0.00      -4.55       9.45
   5126.65     241.37       0.00      -4.64       9.31
   5226.65     241.82       0.00      -4.73       9.16
   5326.65     242.27       0.00      -4.82       9.02
   5426.65     242.72       0.00      -4.92       8.87
   5526.65     243.17       0.00      -5.01       8.73
   5626.65     243.63       0.00      -5.10       8.58
   5726.65     244.08       0.00      -5.20       8.44
   5826.65     244.54       0.00      -5.29       8.29
   5926.65     244.99       0.00      -5.38       8.15
   6026.65     245.45       0.00      -5.48       8.00
   6126.65     245.91       0.00      -5.57       7.85
   6226.65     246.37       0.00      -5.66       7.71
   6326.65     246.83       0.00      -5.75       7.56
   6426.65     247.29       0.00      -5.85       7.42
   6526.65     247.75       0.00      -5.94       7.27
   6626.65     248.21       0.00      -6.03       7.13
   6726.65     248.68       0.00      -6.13       6.98
   6826.65     249.14       0.00      -6.22       6.84
   6926.65     249.60       0.00      -6.31       6.69
   7026.65     250.07       0.00      -6.41       6.55
   7126.65     250.54       0.00      -6.50       6.40
   7226.65     251.00       0.00      -6.59       6.26
   7326.65     251.47       0.00      -6.69       6.11
   7426.65     251.94       0.00      -6.78       5.97
   7526.65     252.41       0.00      -6.87       5.82
   7626.65     252.88       0.00      -6.96       5.68
   7726.65     253.35       0.00      -7.06       5.53
   7826.65     253.83       0.00      -7.15       5.39
   7926.65     254.30       0.00      -7.24       5.24
   8026.65     254.78       0.00      -7.34       5.10
   8126.65     255.25       0.00      -7.43       4.95
   8226.65     255.73       0.00      -7.52       4.80
   8326.65     256.20       0.00      -7.62       4.66
   8426.65     256.68       0.00      -7.71       4.51
   8526.65     257.16       0.00      -7.80       4.37
   8626.65     257.56       0.00      -7.53       4.24
   8726.65     257.92       0.00      -7.10       4.12
   8826.65     258.29       0.00      -6.66       4.00
   8926.65     258.66       0.00      -6.23       3.87
   9026.65     259.02       0.00      -5.80       3.75
   9126.65     259.39       0.00      -5.37       3.63
   9226.65     259.75       0.00      -4.94       3.51
   9326.65     260.12       0.00      -4.51       3.39
   9426.65     260.49       0.00      -4.07       3.27
   9526.65     260.86       0.00      -3.64       3.14
   9626.65     261.23       0.00      -3.21       3.02
   9726.65     261.59       0.00      -2.78       2.90
   9826.65     261.96       0.00      -2.35       2.78
   9926.65     262.33       0.00      -1.92       2.66
  10026.65     262.70       0.00      -1.49       2.53
  10126.65     263.07       0.00      -1.05       2.41
  10226.65     263.44       0.00      -0.62       2.29
  10326.65     263.82       0.00      -0.19       2.17
  10426.65     264.19       0.00       0.24       2.05
  10526.65     264.56       0.00       0.67       1.92
  10626.65     264.93       0.00       1.10       1.80
  10726.65     265.31       0.00       1.54       1.68
  10826.65     265.68       0.00       1.97       1.56
  10926.65     266.05       0.00       2.40       1.44
  11026.65     266.43       0.00       2.83       1.32
  11126.65     266.80       0.00       3.26       1.19
  11226.65     267.18       0.00       3.69       1.07
  11326.65     267.55       0.00       4.13       0.95
  11426.65     267.93       0.00       4.56       0.83
  11526.65     268.30       0.00       4.99       0.71
  11626.65     268.68       0.00       5.42       0.58
  11726.65     269.06       0.00       5.85       0.46
  11826.65     269.43       0.00       6.28       0.34
  11926.65     269.81       0.00       6.72       0.22
  12026.65     270.19       0.00       7.15       0.10
  12126.65     270.57       0.00       7.58      -0.02
  12226.65     270.95       0.00       8.01      -0.15
  12326.65     271.33       0.00       8.44      -0.27
  12426.65     271.71       0.00       8.87      -0.39
  12526.65     272.09       0.00       9.31      -0.51
  12626.65     272.47       0.00       9.74      -0.63
  12726.65     272.85       0.00      10.17      -0.76
  12826.65     273.23       0.00      10.60      -0.88
  12926.65     273.61       0.00      11.03      -1.00
  13026.65     274.00       0.00      11.46      -1.12
  13126.65     274.38       0.00      11.90      -1.24
  13226.65     274.76       0.00      12.33      -1.37
  13326.65     275.15       0.00      12.73      -1.48
  13426.65     275.50       0.00      12.58      -1.41
  13526.65     275.85       0.00      12.42      -1.33
  13626.65     276.21       0.00      12.27      -1.26
  13726.65     276.56       0.00      12.12      -1.19
  13826.65     276.92       0.00      11.96      -1.11
  13926.65     277.27       0.00      11.81      -1.04
  14026.65     277.63       0.00      11.65      -0.97
  14126.65     277.99       0.00      11.50      -0.90
  14226.65     278.34       0.00      11.34      -0.82
  14326.65     278.70       0.00      11.19      -0.75
  14426.65     279.06       0.00      11.04      -0.68
  14526.65     279.41       0.00      10.88      -0.61
  14626.65     279.77       0.00      10.73      -0.53
  14726.65     280.13       0.00      10.57      -0.46
  14826.65     280.48       0.00      10.42      -0.39
  14926.65     280.84       0.00      10.26      -0.31
  15026.65     281.20       0.00      10.11      -0.24
  15126.65     281.56       0.00       9.96      -0.17
  15226.65     281.92       0.00       9.80      -0.10
  15326.65     282.28       0.00       9.65      -0.02
  15426.65     282.64       0.00       9.49       0.05
  15526.65     283.00       0.00       9.34       0.12
  15626.65     283.36       0.00       9.19       0.19
  15726.65     283.72       0.00       9.03       0.27
  15826.65     284.08       0.00       8.88       0.34
  15926.65     284.44       0.00       8.72       0.41
  16026.65     284.80       0.00       8.57       0.48
  16126.65     285.16       0.00       8.41       0.56
  16226.65     285.52       0.00       8.26       0.63
  16326.65     285.88       0.00       8.11       0.70
  16426.65     286.24       0.00       7.95       0.78
  16526.65     286.60       0.00       7.80       0.85
  16626.65     286.97       0.00       7.64       0.92
  16726.65     287.33       0.00       7.49       0.99
  16826.65     287.69       0.00       7.33       1.07
  16926.65     288.05       0.00       7.18       1.14
  17026.65     288.42       0.00       7.03       1.21
  17126.65     288.78       0.00       6.87       1.28
  17226.65     289.14       0.00       6.72       1.36
  17326.65     289.51       0.00       6.56       1.43
  17426.65     289.87       0.00       6.41       1.50
  17526.65     290.24       0.00       6.26       1.58
  17626.65     290.60       0.00       6.10       1.65
  17726.65     290.97       0.00       5.95       1.72
  17826.65     291.33       0.00       5.79       1.79
  17926.65     291.70       0.00       5.64       1.87
  18026.65     292.06       0.00       5.48       1.94
  18126.65     292.43       0.00       5.33       2.01
  18226.65     292.79       0.00       5.18       2.08
  18326.65     293.16       0.00       5.02       2.16
  18426.65     293.53       0.00       4.87       2.23
  18526.65     293.89       0.00       4.71       2.30
