 &time_control
 start_year       = 2024,
 start_month      = 11, 
 start_day        = 34,
 start_hour       = 00,
 end_year         = 2024,
 end_month        = 11,
 end_day          = 38, 
 end_hour         = 00, 
 history_interval    = 74,   ! *100s : 74 is each 2 MH, 37 is each MH  
 frames_per_outfile  = 12, 
 restart          = .false.
 restart_interval = 8880,
 io_form_history  = 2
 io_form_restart  = 2
 io_form_input    = 2
 io_form_boundary = 2
 debug_level      = 0
 /

 &domains
 time_step   = 10, 
 dx = 12000,
 dy = 12000,
 e_we   = 401,               ! IF YOU CHANGE THIS YOU MUST RECOMPILE THE PHYSICS
 e_sn   = 121,               ! IF YOU CHANGE THIS YOU MUST RECOMPILE THE PHYSICS
 e_vert = 61,                ! IF YOU CHANGE THIS YOU MUST RECOMPILE THE PHYSICS
 p_top_requested = 3	 !! 1 et 2 ne passent pas
 /

 &physics
 radt = 1,  	! call each half hour with radt = 1850/dt
 mars = 0,      ! IF YOU CHANGE THIS YOU MUST RECOMPILE THE PHYSICS (AND CHANGE CALLPHYS.DEF)
 /

 &fdda
 /

 &dynamics
 diff_6th_opt = 2,         !! NECESSAIRE DANS LES ZONES DE VENT FAIBLES
 diff_6th_factor = 0.2,    !! NECESSAIRE DANS LES ZONES DE VENT FAIBLES
 diff_opt = 1,
 km_opt = 4,
 pd_scalar = F,
 /

 &grib2
 /

 &bdy_control
 /

!! DO NOT MODIFY
 &namelist_quilt
 nio_tasks_per_group = 0,
 nio_groups = 1,
 /
!! DO NOT MODIFY
