    972.21      315.98          0.00000
      5.49      315.76      	 0.0	     0.0    0.0
     19.98      312.80      	 0.0	     0.0    0.0
     49.41      300.93      	 0.0	     0.0    0.0
    116.58      301.08      	 0.0	     0.0    0.0
    252.52      301.47      	 0.0	     0.0    0.0
    508.01      302.21      	 0.0	     0.0    0.0
    981.78      303.95      	 0.0	     0.0    0.0
   1827.02      310.53      	 0.0	     0.0    0.0
   3231.07      320.58      	 0.0	     0.0    0.0
   5263.61      333.68      	 0.0	     0.0    0.0
   7758.99      341.76      	 0.0	     0.0    0.0
  10556.59      348.41      	 0.0	     0.0    0.0
  13556.59      356.71      	 0.0	     0.0    0.0
  16556.59      432.09      	 0.0	     0.0    0.0
  19671.71      529.76      	 0.0	     0.0    0.0
  23220.47      686.18      	 0.0	     0.0    0.0
  27220.47      867.03      	 0.0	     0.0    0.0
  31220.47     1115.28      	 0.0	     0.0    0.0
  35220.47     1403.84      	 0.0	     0.0    0.0
  39220.47     1694.81      	 0.0	     0.0    0.0
  43220.47     2168.19      	 0.0	     0.0    0.0
  47220.47     2922.93      	 0.0	     0.0    0.0
  51220.47     3730.97      	 0.0	     0.0    0.0
  55220.47     5041.55      	 0.0	     0.0    0.0
  59220.47     5676.22      	 0.0	     0.0    0.0
  63220.47     8730.97      	 0.0	     0.0    0.0
